/*--------------------------------*- C++ -*----------------------------------*\
| =========                 |                                                 |
| \\      /  F ield         | OpenFOAM: The Open Source CFD Toolbox           |
|  \\    /   O peration     | Version:  v1912                                 |
|   \\  /    A nd           | Website:  www.openfoam.com                      |
|    \\/     M anipulation  |                                                 |
\*---------------------------------------------------------------------------*/
FoamFile
{
    version     2.0;
    format      ascii;
    class       polyBoundaryMesh;
    location    "constant/polyMesh";
    object      boundary;
}
// * * * * * * * * * * * * * * * * * * * * * * * * * * * * * * * * * * * * * //

14
(
    leftWall
    {
        type            wall;
        inGroups        1(wall);
        nFaces          0;
        startFace       28208;
    }
    rightWall
    {
        type            wall;
        inGroups        1(wall);
        nFaces          128;
        startFace       28208;
    }
    leftSides_periodic0
    {
        type            cyclic;
        inGroups        1(cyclic);
        nFaces          0;
        startFace       28336;
        matchTolerance  0.0001;
        transform       unknown;
        neighbourPatch  leftSides_periodic1;
    }
    leftSides_periodic1
    {
        type            cyclic;
        inGroups        1(cyclic);
        nFaces          0;
        startFace       28336;
        matchTolerance  0.0001;
        transform       unknown;
        neighbourPatch  leftSides_periodic0;
    }
    rightSides_periodic0
    {
        type            cyclic;
        inGroups        1(cyclic);
        nFaces          0;
        startFace       28336;
        matchTolerance  0.0001;
        transform       unknown;
        neighbourPatch  rightSides_periodic1;
    }
    rightSides_periodic1
    {
        type            cyclic;
        inGroups        1(cyclic);
        nFaces          0;
        startFace       28336;
        matchTolerance  0.0001;
        transform       unknown;
        neighbourPatch  rightSides_periodic0;
    }
    leftInOut_periodic0
    {
        type            cyclic;
        inGroups        1(cyclic);
        nFaces          0;
        startFace       28336;
        matchTolerance  0.0001;
        transform       unknown;
        neighbourPatch  leftInOut_periodic1;
    }
    leftInOut_periodic1
    {
        type            cyclic;
        inGroups        1(cyclic);
        nFaces          0;
        startFace       28336;
        matchTolerance  0.0001;
        transform       unknown;
        neighbourPatch  leftInOut_periodic0;
    }
    rightInOut_periodic0
    {
        type            cyclic;
        inGroups        1(cyclic);
        nFaces          628;
        startFace       28336;
        matchTolerance  0.0001;
        transform       unknown;
        neighbourPatch  rightInOut_periodic1;
    }
    rightInOut_periodic1
    {
        type            cyclic;
        inGroups        1(cyclic);
        nFaces          628;
        startFace       28964;
        matchTolerance  0.0001;
        transform       unknown;
        neighbourPatch  rightInOut_periodic0;
    }
    procBoundary3to1
    {
        type            processor;
        inGroups        1(processor);
        nFaces          1264;
        startFace       29592;
        matchTolerance  0.0001;
        transform       unknown;
        myProcNo        3;
        neighbProcNo    1;
    }
    procBoundary3to1throughrightSides_periodic1
    {
        type            processorCyclic;
        inGroups        1(processorCyclic);
        nFaces          1248;
        startFace       30856;
        matchTolerance  0.0001;
        transform       unknown;
        myProcNo        3;
        neighbProcNo    1;
        referPatch      rightSides_periodic1;
    }
    procBoundary3to2
    {
        type            processor;
        inGroups        1(processor);
        nFaces          147;
        startFace       32104;
        matchTolerance  0.0001;
        transform       unknown;
        myProcNo        3;
        neighbProcNo    2;
    }
    procBoundary3to2throughrightInOut_periodic0
    {
        type            processorCyclic;
        inGroups        1(processorCyclic);
        nFaces          3;
        startFace       32251;
        matchTolerance  0.0001;
        transform       unknown;
        myProcNo        3;
        neighbProcNo    2;
        referPatch      rightInOut_periodic0;
    }
)

// ************************************************************************* //
