/*--------------------------------*- C++ -*----------------------------------*\
| =========                 |                                                 |
| \\      /  F ield         | OpenFOAM: The Open Source CFD Toolbox           |
|  \\    /   O peration     | Version:  v1912                                 |
|   \\  /    A nd           | Website:  www.openfoam.com                      |
|    \\/     M anipulation  |                                                 |
\*---------------------------------------------------------------------------*/
FoamFile
{
    version     2.0;
    format      ascii;
    class       volScalarField;
    location    "0";
    object      nut;
}
// * * * * * * * * * * * * * * * * * * * * * * * * * * * * * * * * * * * * * //

dimensions      [ 0 2 -1 0 0 0 0 ];

internalField   uniform 0;

boundaryField
{
    leftWall
    {
        type            nutUWallFunction;
        value           uniform 0;
    }
    rightWall
    {
        type            nutUWallFunction;
        value           uniform 0;
    }
    leftSides_periodic0
    {
        type            cyclic;
    }
    leftSides_periodic1
    {
        type            cyclic;
    }
    rightSides_periodic0
    {
        type            cyclic;
    }
    rightSides_periodic1
    {
        type            cyclic;
    }
    leftInOut_periodic0
    {
        type            calculated;
        value           uniform 1e-08;
    }
    leftInOut_periodic1
    {
        type            calculated;
        value           uniform 1e-08;
    }
    rightInOut_periodic0
    {
        type            calculated;
        value           uniform 1e-08;
    }
    rightInOut_periodic1
    {
        type            calculated;
        value           uniform 1e-08;
    }
}


// ************************************************************************* //
