/*--------------------------------*- C++ -*----------------------------------*\
| =========                 |                                                 |
| \\      /  F ield         | OpenFOAM: The Open Source CFD Toolbox           |
|  \\    /   O peration     | Version:  v1912                                 |
|   \\  /    A nd           | Website:  www.openfoam.com                      |
|    \\/     M anipulation  |                                                 |
\*---------------------------------------------------------------------------*/
FoamFile
{
    version     2.0;
    format      ascii;
    class       polyBoundaryMesh;
    location    "constant/polyMesh";
    object      boundary;
}
// * * * * * * * * * * * * * * * * * * * * * * * * * * * * * * * * * * * * * //

14
(
    leftWall
    {
        type            wall;
        inGroups        1(wall);
        nFaces          216;
        startFace       97428;
    }
    rightWall
    {
        type            wall;
        inGroups        1(wall);
        nFaces          216;
        startFace       97644;
    }
    leftSides_periodic0
    {
        type            cyclic;
        inGroups        1(cyclic);
        nFaces          0;
        startFace       97860;
        matchTolerance  0.0001;
        transform       unknown;
        neighbourPatch  leftSides_periodic1;
    }
    leftSides_periodic1
    {
        type            cyclic;
        inGroups        1(cyclic);
        nFaces          0;
        startFace       97860;
        matchTolerance  0.0001;
        transform       unknown;
        neighbourPatch  leftSides_periodic0;
    }
    rightSides_periodic0
    {
        type            cyclic;
        inGroups        1(cyclic);
        nFaces          0;
        startFace       97860;
        matchTolerance  0.0001;
        transform       unknown;
        neighbourPatch  rightSides_periodic1;
    }
    rightSides_periodic1
    {
        type            cyclic;
        inGroups        1(cyclic);
        nFaces          0;
        startFace       97860;
        matchTolerance  0.0001;
        transform       unknown;
        neighbourPatch  rightSides_periodic0;
    }
    leftInOut_periodic0
    {
        type            patch;
        nFaces          948;
        startFace       97860;
    }
    leftInOut_periodic1
    {
        type            patch;
        nFaces          0;
        startFace       98808;
    }
    rightInOut_periodic0
    {
        type            patch;
        nFaces          948;
        startFace       98808;
    }
    rightInOut_periodic1
    {
        type            patch;
        nFaces          0;
        startFace       99756;
    }
    procBoundary0to1
    {
        type            processor;
        inGroups        1(processor);
        nFaces          2844;
        startFace       99756;
        matchTolerance  0.0001;
        transform       unknown;
        myProcNo        0;
        neighbProcNo    1;
    }
    procBoundary0to2throughleftSides_periodic1
    {
        type            processorCyclic;
        inGroups        1(processorCyclic);
        nFaces          1422;
        startFace       102600;
        matchTolerance  0.0001;
        transform       unknown;
        myProcNo        0;
        neighbProcNo    2;
        referPatch      leftSides_periodic1;
    }
    procBoundary0to2throughrightSides_periodic1
    {
        type            processorCyclic;
        inGroups        1(processorCyclic);
        nFaces          1422;
        startFace       104022;
        matchTolerance  0.0001;
        transform       unknown;
        myProcNo        0;
        neighbProcNo    2;
        referPatch      rightSides_periodic1;
    }
    procBoundary0to3
    {
        type            processor;
        inGroups        1(processor);
        nFaces          1896;
        startFace       105444;
        matchTolerance  0.0001;
        transform       unknown;
        myProcNo        0;
        neighbProcNo    3;
    }
)

// ************************************************************************* //
