/*--------------------------------*- C++ -*----------------------------------*\
| =========                 |                                                 |
| \\      /  F ield         | OpenFOAM: The Open Source CFD Toolbox           |
|  \\    /   O peration     | Version:  v1906                                 |
|   \\  /    A nd           | Web:      www.OpenFOAM.com                      |
|    \\/     M anipulation  |                                                 |
\*---------------------------------------------------------------------------*/
FoamFile
{
    version     2.0;
    format      ascii;
    class       polyBoundaryMesh;
    location    "constant/polyMesh";
    object      boundary;
}
// * * * * * * * * * * * * * * * * * * * * * * * * * * * * * * * * * * * * * //

14
(
    leftWall
    {
        type            wall;
        inGroups        1(wall);
        nFaces          8;
        startFace       1408;
    }
    rightWall
    {
        type            wall;
        inGroups        1(wall);
        nFaces          0;
        startFace       1416;
    }
    leftSides_periodic0
    {
        type            cyclic;
        inGroups        1(cyclic);
        nFaces          0;
        startFace       1416;
        matchTolerance  0.0001;
        transform       unknown;
        neighbourPatch  leftSides_periodic1;
    }
    leftSides_periodic1
    {
        type            cyclic;
        inGroups        1(cyclic);
        nFaces          0;
        startFace       1416;
        matchTolerance  0.0001;
        transform       unknown;
        neighbourPatch  leftSides_periodic0;
    }
    rightSides_periodic0
    {
        type            cyclic;
        inGroups        1(cyclic);
        nFaces          0;
        startFace       1416;
        matchTolerance  0.0001;
        transform       unknown;
        neighbourPatch  rightSides_periodic1;
    }
    rightSides_periodic1
    {
        type            cyclic;
        inGroups        1(cyclic);
        nFaces          0;
        startFace       1416;
        matchTolerance  0.0001;
        transform       unknown;
        neighbourPatch  rightSides_periodic0;
    }
    leftInOut_periodic0
    {
        type            cyclic;
        inGroups        1(cyclic);
        nFaces          157;
        startFace       1416;
        matchTolerance  0.0001;
        transform       unknown;
        neighbourPatch  leftInOut_periodic1;
    }
    leftInOut_periodic1
    {
        type            cyclic;
        inGroups        1(cyclic);
        nFaces          157;
        startFace       1573;
        matchTolerance  0.0001;
        transform       unknown;
        neighbourPatch  leftInOut_periodic0;
    }
    rightInOut_periodic0
    {
        type            cyclic;
        inGroups        1(cyclic);
        nFaces          0;
        startFace       1730;
        matchTolerance  0.0001;
        transform       unknown;
        neighbourPatch  rightInOut_periodic1;
    }
    rightInOut_periodic1
    {
        type            cyclic;
        inGroups        1(cyclic);
        nFaces          0;
        startFace       1730;
        matchTolerance  0.0001;
        transform       unknown;
        neighbourPatch  rightInOut_periodic0;
    }
    procBoundary0to1
    {
        type            processor;
        inGroups        1(processor);
        nFaces          11;
        startFace       1730;
        matchTolerance  0.0001;
        transform       unknown;
        myProcNo        0;
        neighbProcNo    1;
    }
    procBoundary0to1throughleftInOut_periodic1
    {
        type            processorCyclic;
        inGroups        1(processorCyclic);
        nFaces          1;
        startFace       1741;
        matchTolerance  0.0001;
        transform       unknown;
        myProcNo        0;
        neighbProcNo    1;
        referPatch      leftInOut_periodic1;
    }
    procBoundary0to2
    {
        type            processor;
        inGroups        1(processor);
        nFaces          316;
        startFace       1742;
        matchTolerance  0.0001;
        transform       unknown;
        myProcNo        0;
        neighbProcNo    2;
    }
    procBoundary0to2throughleftSides_periodic0
    {
        type            processorCyclic;
        inGroups        1(processorCyclic);
        nFaces          314;
        startFace       2058;
        matchTolerance  0.0001;
        transform       unknown;
        myProcNo        0;
        neighbProcNo    2;
        referPatch      leftSides_periodic0;
    }
)

// ************************************************************************* //
