/*--------------------------------*- C++ -*----------------------------------*\
| =========                 |                                                 |
| \\      /  F ield         | OpenFOAM: The Open Source CFD Toolbox           |
|  \\    /   O peration     | Version:  v1912                                 |
|   \\  /    A nd           | Website:  www.openfoam.com                      |
|    \\/     M anipulation  |                                                 |
\*---------------------------------------------------------------------------*/
FoamFile
{
    version     2.0;
    format      ascii;
    class       volScalarField;
    location    "0";
    object      k;
}
// * * * * * * * * * * * * * * * * * * * * * * * * * * * * * * * * * * * * * //

dimensions      [ 0 2 -2 0 0 0 0 ];

internalField   uniform 0.000375;

boundaryField
{
    leftWall
    {
        type            kqRWallFunction;
        value           $internalField;
    }
    rightWall
    {
        type            kqRWallFunction;
        value           $internalField;
    }
    leftSides_periodic0
    {
        type            cyclic;
    }
    leftSides_periodic1
    {
        type            cyclic;
    }
    rightSides_periodic0
    {
        type            cyclic;
    }
    rightSides_periodic1
    {
        type            cyclic;
    }
    leftInOut_periodic0
    {
        type            inletOutlet;
        inletValue      $internalField;
        value           $internalField;
    }
    leftInOut_periodic1
    {
        type            turbulentIntensityKineticEnergyInlet;
        intensity       0.01;
        value           $internalField;
    }
    rightInOut_periodic0
    {
        type            inletOutlet;
        inletValue      $internalField;
        value           $internalField;
    }
    rightInOut_periodic1
    {
        type            turbulentIntensityKineticEnergyInlet;
        intensity       0.01;
        value           $internalField;
    }
}


// ************************************************************************* //
