/*--------------------------------*- C++ -*----------------------------------*\
| =========                 |                                                 |
| \\      /  F ield         | OpenFOAM: The Open Source CFD Toolbox           |
|  \\    /   O peration     | Version:  v1912                                 |
|   \\  /    A nd           | Website:  www.openfoam.com                      |
|    \\/     M anipulation  |                                                 |
\*---------------------------------------------------------------------------*/
FoamFile
{
    version     2.0;
    format      ascii;
    class       volVectorField;
    location    "0";
    object      U;
}
// * * * * * * * * * * * * * * * * * * * * * * * * * * * * * * * * * * * * * //

dimensions      [ 0 1 -1 0 0 0 0 ];

internalField   uniform ( 0 0 -0.22618 );

boundaryField
{
    leftWall
    {
        type            noSlip;
    }
    rightWall
    {
        type            noSlip;
    }
    leftSides_periodic0
    {
        type            cyclic;
    }
    leftSides_periodic1
    {
        type            cyclic;
    }
    rightSides_periodic0
    {
        type            cyclic;
    }
    rightSides_periodic1
    {
        type            cyclic;
    }
    leftInOut_periodic0
    {
        type            inletOutlet;
        inletValue      $internalField;
        value           $internalField;
    }

    leftInOut_periodic1
    {

        type            turbulentDFSEMInlet;
        delta           2;
        nCellPerEddy    1;
        // mapMethod       nearestCell;
	// just a random fix to test solver stability for now

	L		uniform 0;
	R		uniform (0.000231114 -2.80909e-09 -5.48724e-08 0.000227087 -0.000106873 0.000235693);
	U		$internalField;
        value           $internalField;

    }

    rightInOut_periodic0
    {
        type            inletOutlet;
        inletValue      $internalField;
        value           $internalField;
    }
    rightInOut_periodic1

    {

        type            turbulentDFSEMInlet;
        delta           2;
        nCellPerEddy    1;
        // mapMethod       nearestCell;
        // just a random fix to test solver stability for now

        L               uniform 0;
        R               uniform (0.000231114 -2.80909e-09 -5.48724e-08 0.000227087 -0.000106873 0.000235693);
        U               $internalField;
        value           $internalField;

    }


}


// ************************************************************************* //
