/*--------------------------------*- C++ -*----------------------------------*\
| =========                 |                                                 |
| \\      /  F ield         | OpenFOAM: The Open Source CFD Toolbox           |
|  \\    /   O peration     | Version:  v1906                                 |
|   \\  /    A nd           | Web:      www.OpenFOAM.com                      |
|    \\/     M anipulation  |                                                 |
\*---------------------------------------------------------------------------*/
FoamFile
{
    version     2.0;
    format      ascii;
    class       dictionary;
    location    "system";
    object      fvSchemes;
}
// * * * * * * * * * * * * * * * * * * * * * * * * * * * * * * * * * * * * * //

ddtSchemes
{
    default         Euler;
}

gradSchemes
{
    default         Gauss linear;
}

divSchemes
{
    default         none;
    div(phi,U)      Gauss cubic;
    div(phi,k)      Gauss linear;
    div(phi,B)      Gauss linear;
    div(B)          Gauss linear;
    div(phi,nuTilda) Gauss linear;

    div(((rho*nuEff)*dev2(T(grad(U))))) Gauss linear;

    div(phi,K)      Gauss linear;
    div(phi,h)      Gauss cubic;
    div(phi,epsilon) bounded Gauss limitedLinear 0.2;
    div(phi,omega) bounded Gauss limitedLinear 0.2;

}

laplacianSchemes
{
    default         Gauss linear corrected;
}

interpolationSchemes
{
    default         linear;
}

snGradSchemes
{
    default         corrected;
}

wallDist
{
    method meshWave;
}


// ************************************************************************* //
