/*--------------------------------*- C++ -*----------------------------------*\
| =========                 |                                                 |
| \\      /  F ield         | OpenFOAM: The Open Source CFD Toolbox           |
|  \\    /   O peration     | Version:  v1912                                 |
|   \\  /    A nd           | Website:  www.openfoam.com                      |
|    \\/     M anipulation  |                                                 |
\*---------------------------------------------------------------------------*/
FoamFile
{
    version     2.0;
    format      ascii;
    class       polyBoundaryMesh;
    location    "constant/polyMesh";
    object      boundary;
}
// * * * * * * * * * * * * * * * * * * * * * * * * * * * * * * * * * * * * * //

16
(
    leftWall
    {
        type            wall;
        inGroups        1(wall);
        nFaces          128;
        startFace       28397;
    }
    rightWall
    {
        type            wall;
        inGroups        1(wall);
        nFaces          0;
        startFace       28525;
    }
    leftSides_periodic0
    {
        type            cyclic;
        inGroups        1(cyclic);
        nFaces          0;
        startFace       28525;
        matchTolerance  0.0001;
        transform       unknown;
        neighbourPatch  leftSides_periodic1;
    }
    leftSides_periodic1
    {
        type            cyclic;
        inGroups        1(cyclic);
        nFaces          0;
        startFace       28525;
        matchTolerance  0.0001;
        transform       unknown;
        neighbourPatch  leftSides_periodic0;
    }
    rightSides_periodic0
    {
        type            cyclic;
        inGroups        1(cyclic);
        nFaces          0;
        startFace       28525;
        matchTolerance  0.0001;
        transform       unknown;
        neighbourPatch  rightSides_periodic1;
    }
    rightSides_periodic1
    {
        type            cyclic;
        inGroups        1(cyclic);
        nFaces          0;
        startFace       28525;
        matchTolerance  0.0001;
        transform       unknown;
        neighbourPatch  rightSides_periodic0;
    }
    leftInOut_periodic0
    {
        type            cyclic;
        inGroups        1(cyclic);
        nFaces          632;
        startFace       28525;
        matchTolerance  0.0001;
        transform       unknown;
        neighbourPatch  leftInOut_periodic1;
    }
    leftInOut_periodic1
    {
        type            cyclic;
        inGroups        1(cyclic);
        nFaces          632;
        startFace       29157;
        matchTolerance  0.0001;
        transform       unknown;
        neighbourPatch  leftInOut_periodic0;
    }
    rightInOut_periodic0
    {
        type            cyclic;
        inGroups        1(cyclic);
        nFaces          1;
        startFace       29789;
        matchTolerance  0.0001;
        transform       unknown;
        neighbourPatch  rightInOut_periodic1;
    }
    rightInOut_periodic1
    {
        type            cyclic;
        inGroups        1(cyclic);
        nFaces          1;
        startFace       29790;
        matchTolerance  0.0001;
        transform       unknown;
        neighbourPatch  rightInOut_periodic0;
    }
    procBoundary2to0
    {
        type            processor;
        inGroups        1(processor);
        nFaces          1264;
        startFace       29791;
        matchTolerance  0.0001;
        transform       unknown;
        myProcNo        2;
        neighbProcNo    0;
    }
    procBoundary2to0throughleftSides_periodic1
    {
        type            processorCyclic;
        inGroups        1(processorCyclic);
        nFaces          1248;
        startFace       31055;
        matchTolerance  0.0001;
        transform       unknown;
        myProcNo        2;
        neighbProcNo    0;
        referPatch      leftSides_periodic1;
    }
    procBoundary2to1throughleftSides_periodic1
    {
        type            processorCyclic;
        inGroups        1(processorCyclic);
        nFaces          16;
        startFace       32303;
        matchTolerance  0.0001;
        transform       unknown;
        myProcNo        2;
        neighbProcNo    1;
        referPatch      leftSides_periodic1;
    }
    procBoundary2to1throughrightSides_periodic1
    {
        type            processorCyclic;
        inGroups        1(processorCyclic);
        nFaces          16;
        startFace       32319;
        matchTolerance  0.0001;
        transform       unknown;
        myProcNo        2;
        neighbProcNo    1;
        referPatch      rightSides_periodic1;
    }
    procBoundary2to3
    {
        type            processor;
        inGroups        1(processor);
        nFaces          147;
        startFace       32335;
        matchTolerance  0.0001;
        transform       unknown;
        myProcNo        2;
        neighbProcNo    3;
    }
    procBoundary2to3throughrightInOut_periodic1
    {
        type            processorCyclic;
        inGroups        1(processorCyclic);
        nFaces          3;
        startFace       32482;
        matchTolerance  0.0001;
        transform       unknown;
        myProcNo        2;
        neighbProcNo    3;
        referPatch      rightInOut_periodic1;
    }
)

// ************************************************************************* //
