/*--------------------------------*- C++ -*----------------------------------*\
| =========                 |                                                 |
| \\      /  F ield         | OpenFOAM: The Open Source CFD Toolbox           |
|  \\    /   O peration     | Version:  v1906                                 |
|   \\  /    A nd           | Web:      www.OpenFOAM.com                      |
|    \\/     M anipulation  |                                                 |
\*---------------------------------------------------------------------------*/
FoamFile
{
    version     2.0;
    format      ascii;
    class       polyBoundaryMesh;
    location    "constant/polyMesh";
    object      boundary;
}
// * * * * * * * * * * * * * * * * * * * * * * * * * * * * * * * * * * * * * //

16
(
    leftWall
    {
        type            wall;
        inGroups        1(wall);
        nFaces          324;
        startFace       147564;
    }
    rightWall
    {
        type            wall;
        inGroups        1(wall);
        nFaces          324;
        startFace       147888;
    }
    leftSides_periodic0
    {
        type            cyclic;
        inGroups        1(cyclic);
        nFaces          0;
        startFace       148212;
        matchTolerance  0.0001;
        transform       unknown;
        neighbourPatch  leftSides_periodic1;
    }
    leftSides_periodic1
    {
        type            cyclic;
        inGroups        1(cyclic);
        nFaces          0;
        startFace       148212;
        matchTolerance  0.0001;
        transform       unknown;
        neighbourPatch  leftSides_periodic0;
    }
    rightSides_periodic0
    {
        type            cyclic;
        inGroups        1(cyclic);
        nFaces          0;
        startFace       148212;
        matchTolerance  0.0001;
        transform       unknown;
        neighbourPatch  rightSides_periodic1;
    }
    rightSides_periodic1
    {
        type            cyclic;
        inGroups        1(cyclic);
        nFaces          0;
        startFace       148212;
        matchTolerance  0.0001;
        transform       unknown;
        neighbourPatch  rightSides_periodic0;
    }
    leftInOut_periodic0
    {
        type            cyclic;
        inGroups        1(cyclic);
        nFaces          0;
        startFace       148212;
        matchTolerance  0.0001;
        transform       unknown;
        neighbourPatch  leftInOut_periodic1;
    }
    leftInOut_periodic1
    {
        type            cyclic;
        inGroups        1(cyclic);
        nFaces          0;
        startFace       148212;
        matchTolerance  0.0001;
        transform       unknown;
        neighbourPatch  leftInOut_periodic0;
    }
    rightInOut_periodic0
    {
        type            cyclic;
        inGroups        1(cyclic);
        nFaces          0;
        startFace       148212;
        matchTolerance  0.0001;
        transform       unknown;
        neighbourPatch  rightInOut_periodic1;
    }
    rightInOut_periodic1
    {
        type            cyclic;
        inGroups        1(cyclic);
        nFaces          0;
        startFace       148212;
        matchTolerance  0.0001;
        transform       unknown;
        neighbourPatch  rightInOut_periodic0;
    }
    procBoundary0to1
    {
        type            processor;
        inGroups        1(processor);
        nFaces          2844;
        startFace       148212;
        matchTolerance  0.0001;
        transform       unknown;
        myProcNo        0;
        neighbProcNo    1;
    }
    procBoundary0to1throughleftInOut_periodic1
    {
        type            processorCyclic;
        inGroups        1(processorCyclic);
        nFaces          1422;
        startFace       151056;
        matchTolerance  0.0001;
        transform       unknown;
        myProcNo        0;
        neighbProcNo    1;
        referPatch      leftInOut_periodic1;
    }
    procBoundary0to1throughrightInOut_periodic1
    {
        type            processorCyclic;
        inGroups        1(processorCyclic);
        nFaces          1422;
        startFace       152478;
        matchTolerance  0.0001;
        transform       unknown;
        myProcNo        0;
        neighbProcNo    1;
        referPatch      rightInOut_periodic1;
    }
    procBoundary0to2
    {
        type            processor;
        inGroups        1(processor);
        nFaces          2844;
        startFace       153900;
        matchTolerance  0.0001;
        transform       unknown;
        myProcNo        0;
        neighbProcNo    2;
    }
    procBoundary0to2throughleftSides_periodic0
    {
        type            processorCyclic;
        inGroups        1(processorCyclic);
        nFaces          1422;
        startFace       156744;
        matchTolerance  0.0001;
        transform       unknown;
        myProcNo        0;
        neighbProcNo    2;
        referPatch      leftSides_periodic0;
    }
    procBoundary0to2throughrightSides_periodic0
    {
        type            processorCyclic;
        inGroups        1(processorCyclic);
        nFaces          1422;
        startFace       158166;
        matchTolerance  0.0001;
        transform       unknown;
        myProcNo        0;
        neighbProcNo    2;
        referPatch      rightSides_periodic0;
    }
)

// ************************************************************************* //
