/*--------------------------------*- C++ -*----------------------------------*\
| =========                 |                                                 |
| \\      /  F ield         | OpenFOAM: The Open Source CFD Toolbox           |
|  \\    /   O peration     | Version:  v1912                                 |
|   \\  /    A nd           | Website:  www.openfoam.com                      |
|    \\/     M anipulation  |                                                 |
\*---------------------------------------------------------------------------*/
FoamFile
{
    version     2.0;
    format      ascii;
    class       polyBoundaryMesh;
    location    "constant/polyMesh";
    object      boundary;
}
// * * * * * * * * * * * * * * * * * * * * * * * * * * * * * * * * * * * * * //

10
(
    leftWall
    {
        type            wall;
        inGroups        1(wall);
        nFaces          1296;
        startFace       601632;
    }
    rightWall
    {
        type            wall;
        inGroups        1(wall);
        nFaces          1296;
        startFace       602928;
    }
    leftSides_periodic0
    {
        type            cyclic;
        inGroups        1(cyclic);
        nFaces          2844;
        startFace       604224;
        matchTolerance  0.0001;
        transform       unknown;
        neighbourPatch  leftSides_periodic1;
    }
    leftSides_periodic1
    {
        type            cyclic;
        inGroups        1(cyclic);
        nFaces          2844;
        startFace       607068;
        matchTolerance  0.0001;
        transform       unknown;
        neighbourPatch  leftSides_periodic0;
    }
    rightSides_periodic0
    {
        type            cyclic;
        inGroups        1(cyclic);
        nFaces          2844;
        startFace       609912;
        matchTolerance  0.0001;
        transform       unknown;
        neighbourPatch  rightSides_periodic1;
    }
    rightSides_periodic1
    {
        type            cyclic;
        inGroups        1(cyclic);
        nFaces          2844;
        startFace       612756;
        matchTolerance  0.0001;
        transform       unknown;
        neighbourPatch  rightSides_periodic0;
    }
    leftInOut_periodic0
    {
        type            patch;
        nFaces          2844;
        startFace       615600;
    }
    leftInOut_periodic1
    {
        type            patch;
        nFaces          2844;
        startFace       618444;
    }
    rightInOut_periodic0
    {
        type            patch;
        nFaces          2844;
        startFace       621288;
    }
    rightInOut_periodic1
    {
        type            patch;
        nFaces          2844;
        startFace       624132;
    }
)

// ************************************************************************* //
